Version 4
SHEET 1 1028 680
WIRE 144 -240 -32 -240
WIRE 352 -240 144 -240
WIRE 528 -240 352 -240
WIRE 704 -240 528 -240
WIRE 928 -240 704 -240
WIRE 144 -160 144 -240
WIRE 352 -160 352 -240
WIRE 256 -144 192 -144
WIRE 304 -144 256 -144
WIRE 528 -112 528 -240
WIRE 928 -112 928 -240
WIRE 480 -96 432 -96
WIRE -32 -48 -32 -240
WIRE 144 -32 144 -64
WIRE 256 -32 256 -144
WIRE 256 -32 144 -32
WIRE 352 -32 352 -64
WIRE 432 -32 432 -96
WIRE 432 -32 352 -32
WIRE 144 16 144 -32
WIRE 352 16 352 -32
WIRE 704 16 704 -240
WIRE 80 48 16 48
WIRE 928 64 928 -32
WIRE 1008 64 928 64
WIRE 80 96 80 48
WIRE 96 96 80 96
WIRE 432 96 400 96
WIRE 528 96 528 -16
WIRE 656 96 528 96
WIRE 1008 96 1008 64
WIRE 432 128 432 96
WIRE -32 144 -32 32
WIRE -32 144 -128 144
WIRE 144 160 144 112
WIRE 256 160 144 160
WIRE 352 160 352 112
WIRE 352 160 256 160
WIRE 704 160 704 112
WIRE 16 176 16 128
WIRE 928 192 928 64
WIRE -32 208 -32 144
WIRE 144 208 -32 208
WIRE 256 208 256 160
WIRE 528 208 528 96
WIRE -128 288 -128 144
WIRE -80 288 -128 288
WIRE 144 288 144 208
WIRE 208 288 144 288
WIRE 144 320 144 288
WIRE 480 320 480 288
WIRE 480 320 144 320
WIRE -32 352 -32 304
WIRE 256 352 256 304
WIRE 256 352 -32 352
WIRE 528 352 528 304
WIRE 528 352 256 352
WIRE 704 352 704 240
WIRE 704 352 528 352
WIRE 928 352 928 272
WIRE 928 352 704 352
FLAG 1008 96 0
FLAG 432 128 0
FLAG 16 176 0
SYMBOL nmos 96 16 R0
SYMATTR InstName M1
SYMBOL nmos 208 208 R0
SYMATTR InstName M2
SYMBOL nmos -80 208 R0
SYMATTR InstName M3
SYMBOL nmos 480 208 R0
SYMATTR InstName M4
SYMBOL nmos 656 16 R0
SYMATTR InstName M5
SYMBOL nmos 400 16 M0
SYMATTR InstName M6
SYMBOL pmos 304 -64 M180
SYMATTR InstName M7
SYMBOL pmos 480 -16 M180
SYMATTR InstName M8
SYMBOL pmos 192 -64 R180
SYMATTR InstName M9
SYMBOL res 688 144 R0
SYMATTR InstName R1
SYMATTR Value 4.63k
SYMBOL res -48 -64 R0
SYMATTR InstName R2
SYMATTR Value 99k
SYMBOL voltage 928 -128 R0
WINDOW 123 0 0 Left 0
WINDOW 39 0 0 Left 0
SYMATTR InstName V1
SYMATTR Value 4
SYMBOL voltage 928 176 R0
WINDOW 123 0 0 Left 0
WINDOW 39 0 0 Left 0
SYMATTR InstName V2
SYMATTR Value 4
SYMBOL Misc\\signal 16 32 R0
WINDOW 123 24 132 Left 2
WINDOW 39 0 0 Left 0
SYMATTR InstName V3
SYMATTR Value SINE(0 0.01 10)
SYMATTR Value2 AC 0.01 0
TEXT 240 400 Left 2 !.tran 0 1 0 0.01
